Circuit: * C:\Users\Joseph\Dropbox\EV\2016 Hardware\_Back Plane (PDU)\HornCircuit\HornTankCircuit.asc

.OP point found by inspection.

Date: Tue Feb 23 15:27:59 2016
Total elapsed time: 0.179 seconds.

tnom = 27
temp = 27
method = modified trap
totiter = 18912
traniter = 18912
tranpoints = 9457
accept = 6833
rejected = 2624
matrix size = 3
fillins = 0
solver = Normal
Matrix Compiler1: off  [0.0]/0.1/0.1
Matrix Compiler2: 175 bytes object code size  0.0/0.1/[0.0]


