Circuit: * C:\Users\Desktop\Dropbox\EV\2016 Hardware\_Lights\TSAL Control Simulation\tsalEnable1.asc

Direct Newton iteration failed to find .op point.  (Use ".option noopiter" to skip.)
Starting Gmin stepping
Gmin = 10
Gmin = 1.07374
Gmin = 0.115292
Gmin = 0.0123794
Gmin = 0.00132923
Gmin = 0.000142725
Gmin = 1.5325e-005
vernier = 0.5
Gmin = 3.91876e-006
vernier = 0.666667
vernier = 0.888888
Gmin = 7.56599e-007
vernier = 1
Gmin = 8.6905e-008
Gmin = 9.33136e-009
Gmin = 1.00195e-009
Gmin = 1.07583e-010
Gmin = 1.15517e-011
Gmin = 1.24035e-012
Gmin = 1.33182e-013
Gmin = 0
Gmin stepping succeeded in finding the operating point.


Date: Tue Feb 02 22:00:13 2016
Total elapsed time: 0.334 seconds.

tnom = 27
temp = 27
method = modified trap
totiter = 12665
traniter = 11973
tranpoints = 4373
accept = 3254
rejected = 1119
matrix size = 21
fillins = 14
solver = Normal
Matrix Compiler1: 2.53 KB object code size  1.1/0.8/[0.4]
Matrix Compiler2: off  [0.4]/0.6/0.5


