Circuit: * C:\Users\Desktop\Dropbox\EV\2016 Hardware\_Lights\TSAL Control Simulation\tsalEnable2.asc

Direct Newton iteration for .op point succeeded.

Date: Tue Feb 02 21:59:43 2016
Total elapsed time: 0.208 seconds.

tnom = 27
temp = 27
method = modified trap
totiter = 2389
traniter = 2355
tranpoints = 1108
accept = 1090
rejected = 18
matrix size = 15
fillins = 4
solver = Normal
Matrix Compiler1: 1.61 KB object code size  0.6/0.3/[0.2]
Matrix Compiler2: 1.38 KB object code size  0.2/0.4/[0.2]


